$DATA1 SOURCE='HSPICE' VERSION='A-2008.03 32-BIT'
.TITLE '******** digital electronics, multiplexer design*******'
 tphl             tplh             tpd              avgpower          
 pdp              temper           alter#            
    failed           failed           failed         7.467e-07        
    failed          25.0000           1.0000         
