$DATA1 SOURCE='HSPICE' VERSION='A-2008.03 32-BIT'
.TITLE '******** digital electronics, multiplexer design*******'
 tphl             tplh             tpd              avgpower          
 pdp              temper           alter#            
  7.942e-11       -6.326e-11        8.081e-12        1.048e-04        
  8.469e-16         25.0000           1.0000         
