$DATA1 SOURCE='HSPICE' VERSION='A-2008.03 32-BIT'
.TITLE '******** digital electronics, multiplexer design*******'
 tphl             tplh             tpd              avgpower          
 pdp              temper           alter#            
  4.327e-12        4.207e-11        2.320e-11        5.855e-07        
  1.358e-17         25.0000           1.0000         
