$DATA1 SOURCE='HSPICE' VERSION='A-2008.03 32-BIT'
.TITLE '* 2-to-1 decoder - cmos logic *'
 tphl             tplh             tpd              avgpower          
 pdp              temper           alter#            
    failed           failed           failed         5.134e-09        
    failed          25.0000           1.0000         
